VADER_model/titanium/titanium_voltage.csv
# titanium_voltage.csv run at 2013-01-01 00:00:00 PST on 884 nodes
node_name,voltA_mag,voltA_angle,voltB_mag,voltB_angle,voltC_mag,voltC_angle
load_1_A,125.027335,-0.027246,125.026058,-0.027261,0.000000,0.000000
load_2_B,123.621400,4.146680,123.620108,4.146664,0.000000,0.000000
load_3_C,126.868047,2.034550,126.866788,2.034536,0.000000,0.000000
load_4_A,125.070111,-0.031410,125.053385,-0.031608,0.000000,0.000000
load_5_B,123.685619,4.142541,123.668709,4.142339,0.000000,0.000000
load_6_C,126.912011,2.030721,126.895525,2.030529,0.000000,0.000000
load_7_A,125.035184,-0.027198,125.034069,-0.027211,0.000000,0.000000
load_8_B,123.629274,4.146728,123.628146,4.146714,0.000000,0.000000
load_9_C,126.876003,2.034596,126.874905,2.034583,0.000000,0.000000
load_10_A,125.214170,-0.027552,125.212146,-0.027576,0.000000,0.000000
load_11_A,125.043735,-0.027181,125.042620,-0.027194,0.000000,0.000000
load_12_B,123.637793,4.146746,123.636666,4.146732,0.000000,0.000000
load_13_C,126.884480,2.034612,126.883381,2.034600,0.000000,0.000000
load_14_A,125.017449,-0.028688,125.010758,-0.028767,0.000000,0.000000
load_15_B,123.611227,4.145204,123.604461,4.145123,0.000000,0.000000
load_16_C,126.858514,2.033147,126.851919,2.033071,0.000000,0.000000
load_17_A,125.300637,-0.026965,125.299626,-0.026977,0.000000,0.000000
load_18_A,125.378177,-0.030898,125.361491,-0.031095,0.000000,0.000000
load_19_B,124.070355,4.143393,124.053496,4.143192,0.000000,0.000000
load_20_C,127.227988,2.031960,127.211542,2.031770,0.000000,0.000000
load_21_A,125.457274,-0.027148,125.456062,-0.027162,0.000000,0.000000
load_22_B,124.135430,4.147199,124.134206,4.147184,0.000000,0.000000
load_23_C,127.302601,2.035474,127.301406,2.035460,0.000000,0.000000
load_24_A,126.098914,-0.033319,126.098085,-0.033329,0.000000,0.000000
load_25_B,125.385905,4.153788,125.385072,4.153778,0.000000,0.000000
load_26_C,127.025660,2.040189,127.024837,2.040179,0.000000,0.000000
load_27_A,125.473743,-0.026856,125.472733,-0.026868,0.000000,0.000000
load_28_A,125.475149,-0.026783,125.474409,-0.026792,0.000000,0.000000
load_29_A,125.096899,-0.035981,125.063104,-0.036379,0.000000,0.000000
load_30_A,125.721016,-0.031155,125.714362,-0.031233,0.000000,0.000000
load_31_B,124.680207,4.148875,124.673498,4.148796,0.000000,0.000000
load_32_C,127.162642,2.036426,127.156063,2.036349,0.000000,0.000000
load_33_A,125.301804,-0.026893,125.301063,-0.026902,0.000000,0.000000
load_34_A,126.096037,-0.033453,126.094770,-0.033468,0.000000,0.000000
load_35_B,125.383398,4.153666,125.382125,4.153651,0.000000,0.000000
load_36_C,127.023185,2.040071,127.021927,2.040056,0.000000,0.000000
load_37_A,125.301725,-0.026894,125.300983,-0.026902,0.000000,0.000000
load_38_A,126.096511,-0.033438,126.095245,-0.033453,0.000000,0.000000
load_39_B,125.383507,4.153668,125.382234,4.153653,0.000000,0.000000
load_40_C,127.023291,2.040072,127.022034,2.040057,0.000000,0.000000
load_41_A,126.192082,-0.038206,126.181032,-0.038335,0.000000,0.000000
load_42_B,125.733419,4.153478,125.722329,4.153348,0.000000,0.000000
load_43_C,126.773023,2.039615,126.762023,2.039487,0.000000,0.000000
load_44_A,125.033695,-0.027199,125.032580,-0.027212,0.000000,0.000000
load_45_B,123.627781,4.146727,123.626653,4.146714,0.000000,0.000000
load_46_C,126.874543,2.034596,126.873444,2.034583,0.000000,0.000000
load_47_A,125.171486,-0.028505,125.165664,-0.028574,0.000000,0.000000
load_48_B,123.795751,4.145559,123.789865,4.145489,0.000000,0.000000
load_49_C,127.012422,2.033626,127.006684,2.033560,0.000000,0.000000
load_50_A,125.244691,-0.026988,125.243416,-0.027003,0.000000,0.000000
load_51_B,123.890548,4.147172,123.889260,4.147157,0.000000,0.000000
load_52_C,127.088875,2.035295,127.087618,2.035280,0.000000,0.000000
load_53_A,126.307421,-0.035722,126.306317,-0.035735,0.000000,0.000000
load_54_B,125.793290,4.155698,125.792182,4.155685,0.000000,0.000000
load_55_C,126.912636,2.041428,126.911538,2.041416,0.000000,0.000000
load_56_A,126.097250,-0.033392,126.096144,-0.033405,0.000000,0.000000
load_57_B,125.384241,4.153715,125.383129,4.153702,0.000000,0.000000
load_58_C,127.023989,2.040118,127.022892,2.040105,0.000000,0.000000
load_59_A,125.159023,-0.028619,125.153084,-0.028689,0.000000,0.000000
load_60_B,123.790402,4.145477,123.784398,4.145406,0.000000,0.000000
load_61_C,127.001541,2.033585,126.995688,2.033517,0.000000,0.000000
load_62_A,125.702503,-0.029523,125.700285,-0.029550,0.000000,0.000000
load_63_B,124.623239,4.149694,124.621002,4.149668,0.000000,0.000000
load_64_C,127.204093,2.037329,127.201901,2.037304,0.000000,0.000000
load_65_A,125.216232,-0.027349,125.214957,-0.027364,0.000000,0.000000
load_66_B,123.847946,4.146776,123.846657,4.146760,0.000000,0.000000
load_67_C,127.057828,2.034818,127.056571,2.034803,0.000000,0.000000
load_68_A,126.306497,-0.035766,126.305233,-0.035781,0.000000,0.000000
load_69_B,125.792366,4.155653,125.791096,4.155638,0.000000,0.000000
load_70_C,126.911720,2.041385,126.910461,2.041370,0.000000,0.000000
load_71_A,126.070270,-0.034677,126.064374,-0.034746,0.000000,0.000000
load_72_B,125.357209,4.152416,125.351279,4.152346,0.000000,0.000000
load_73_C,126.996832,2.038840,126.990978,2.038772,0.000000,0.000000
load_74_A,125.020393,-0.028387,125.014818,-0.028453,0.000000,0.000000
load_75_B,123.614221,4.145512,123.608584,4.145444,0.000000,0.000000
load_76_C,126.861437,2.033440,126.855942,2.033376,0.000000,0.000000
load_77_A,126.307594,-0.035720,126.306491,-0.035733,0.000000,0.000000
load_78_B,125.793459,4.155699,125.792351,4.155686,0.000000,0.000000
load_79_C,126.912803,2.041430,126.911705,2.041417,0.000000,0.000000
load_80_A,125.033411,-0.027199,125.032296,-0.027212,0.000000,0.000000
load_81_B,123.627488,4.146728,123.626361,4.146714,0.000000,0.000000
load_82_C,126.874026,2.034596,126.872927,2.034583,0.000000,0.000000
load_83_A,125.218276,-0.027308,125.217163,-0.027321,0.000000,0.000000
load_84_B,123.850501,4.146817,123.849375,4.146804,0.000000,0.000000
load_85_C,127.060270,2.034860,127.059173,2.034847,0.000000,0.000000
load_86_A,125.983528,-0.032443,125.981516,-0.032467,0.000000,0.000000
load_87_A,125.026291,-0.028235,125.021273,-0.028294,0.000000,0.000000
load_88_B,123.620156,4.145668,123.615082,4.145607,0.000000,0.000000
load_89_C,126.867239,2.033588,126.862294,2.033530,0.000000,0.000000
load_90_A,125.272063,-0.027084,125.271321,-0.027093,0.000000,0.000000
load_91_A,125.528091,-0.032349,125.511425,-0.032545,0.000000,0.000000
load_92_B,124.354359,4.144773,124.337538,4.144573,0.000000,0.000000
load_93_C,127.176658,2.032896,127.160206,2.032706,0.000000,0.000000
load_94_A,125.241962,-0.028841,125.235282,-0.028919,0.000000,0.000000
load_95_B,123.879271,4.145292,123.872519,4.145211,0.000000,0.000000
load_96_C,127.082875,2.033431,127.076291,2.033355,0.000000,0.000000
load_97_A,125.044143,-0.027180,125.043028,-0.027194,0.000000,0.000000
load_98_B,123.638203,4.146746,123.637075,4.146732,0.000000,0.000000
load_99_C,126.884880,2.034613,126.883782,2.034600,0.000000,0.000000
load_100_A,125.790369,-0.030100,125.789261,-0.030113,0.000000,0.000000
load_101_B,124.788219,4.150783,124.787102,4.150770,0.000000,0.000000
load_102_C,127.171767,2.038147,127.170671,2.038134,0.000000,0.000000
load_103_A,125.473885,-0.026855,125.472875,-0.026867,0.000000,0.000000
load_104_A,125.219604,-0.027204,125.218862,-0.027213,0.000000,0.000000
load_105_B,123.851342,4.146923,123.850592,4.146914,0.000000,0.000000
load_106_C,127.061152,2.034958,127.060420,2.034950,0.000000,0.000000
load_107_A,126.068459,-0.034873,126.061824,-0.034951,0.000000,0.000000
load_108_B,125.355323,4.152217,125.348649,4.152138,0.000000,0.000000
load_109_C,126.995366,2.038657,126.988778,2.038581,0.000000,0.000000
load_110_A,125.058481,-0.027112,125.057367,-0.027125,0.000000,0.000000
load_111_B,123.658020,4.146835,123.656893,4.146822,0.000000,0.000000
load_112_C,126.899820,2.034730,126.898721,2.034717,0.000000,0.000000
load_113_A,125.212967,-0.027607,125.210740,-0.027634,0.000000,0.000000
load_114_B,123.845129,4.146511,123.842878,4.146484,0.000000,0.000000
load_115_C,127.055019,2.034568,127.052824,2.034543,0.000000,0.000000
load_116_A,125.175344,-0.028812,125.168661,-0.028891,0.000000,0.000000
load_117_B,123.806736,4.145280,123.799980,4.145199,0.000000,0.000000
load_118_C,127.017531,2.033396,127.010944,2.033319,0.000000,0.000000
load_119_A,125.009975,-0.028257,125.004957,-0.028316,0.000000,0.000000
load_120_B,123.603838,4.145647,123.598764,4.145586,0.000000,0.000000
load_121_C,126.848417,2.033512,126.844395,2.033473,0.000000,0.000000
load_122_A,125.271872,-0.027084,125.271130,-0.027093,0.000000,0.000000
load_123_A,125.029939,-0.027200,125.028824,-0.027214,0.000000,0.000000
load_124_B,123.624006,4.146726,123.622879,4.146713,0.000000,0.000000
load_125_C,126.870601,2.034595,126.869502,2.034582,0.000000,0.000000
load_126_A,125.038405,-0.028168,125.033388,-0.028227,0.000000,0.000000
load_127_B,123.637747,4.145756,123.632674,4.145695,0.000000,0.000000
load_128_C,126.880001,2.033703,126.875056,2.033646,0.000000,0.000000
load_129_A,125.218202,-0.027308,125.217089,-0.027321,0.000000,0.000000
load_130_B,123.850428,4.146817,123.849303,4.146803,0.000000,0.000000
load_131_C,127.060198,2.034859,127.059101,2.034847,0.000000,0.000000
load_132_A,125.484633,-0.028280,125.479078,-0.028345,0.000000,0.000000
load_133_B,124.216223,4.146839,124.210612,4.146772,0.000000,0.000000
load_134_C,127.280597,2.035162,127.275119,2.035098,0.000000,0.000000
load_135_A,125.219570,-0.027303,125.218457,-0.027316,0.000000,0.000000
load_136_B,123.851284,4.146823,123.850158,4.146809,0.000000,0.000000
load_137_C,127.061101,2.034862,127.060004,2.034849,0.000000,0.000000
load_138_A,126.073569,-0.034573,126.068040,-0.034638,0.000000,0.000000
load_139_B,125.360481,4.152520,125.354921,4.152455,0.000000,0.000000
load_140_C,127.000418,2.038953,126.994929,2.038890,0.000000,0.000000
load_141_A,126.161118,-0.034068,126.160013,-0.034080,0.000000,0.000000
load_142_B,125.506347,4.154294,125.505237,4.154281,0.000000,0.000000
load_143_C,126.995789,2.040506,126.994691,2.040493,0.000000,0.000000
meter_1,125.027335,-0.027246,125.026058,-0.027261,0.000000,0.000000
meter_2,125.027335,-0.027246,125.026058,-0.027261,0.000000,0.000000
meter_3,125.027335,-0.027246,125.026058,-0.027261,0.000000,0.000000
meter_4,123.621400,4.146680,123.620108,4.146664,0.000000,0.000000
meter_5,123.621400,4.146680,123.620108,4.146664,0.000000,0.000000
meter_6,123.621400,4.146680,123.620108,4.146664,0.000000,0.000000
meter_7,126.868047,2.034550,126.866788,2.034536,0.000000,0.000000
meter_8,126.868047,2.034550,126.866788,2.034536,0.000000,0.000000
meter_9,126.868047,2.034550,126.866788,2.034536,0.000000,0.000000
meter_10,125.070111,-0.031410,125.053385,-0.031608,0.000000,0.000000
meter_11,123.685619,4.142541,123.668709,4.142339,0.000000,0.000000
meter_12,126.912011,2.030721,126.895525,2.030529,0.000000,0.000000
meter_13,125.035184,-0.027198,125.034069,-0.027211,0.000000,0.000000
meter_14,125.035184,-0.027198,125.034069,-0.027211,0.000000,0.000000
meter_15,123.629274,4.146728,123.628146,4.146714,0.000000,0.000000
meter_16,123.629274,4.146728,123.628146,4.146714,0.000000,0.000000
meter_17,126.876003,2.034596,126.874905,2.034583,0.000000,0.000000
meter_18,126.876003,2.034596,126.874905,2.034583,0.000000,0.000000
meter_19,125.214170,-0.027552,125.212146,-0.027576,0.000000,0.000000
meter_20,125.043735,-0.027181,125.042620,-0.027194,0.000000,0.000000
meter_21,123.637793,4.146746,123.636666,4.146732,0.000000,0.000000
meter_22,126.884480,2.034612,126.883381,2.034600,0.000000,0.000000
meter_23,125.017449,-0.028688,125.010758,-0.028767,0.000000,0.000000
meter_24,123.611227,4.145204,123.604461,4.145123,0.000000,0.000000
meter_25,126.858514,2.033147,126.851919,2.033071,0.000000,0.000000
meter_26,125.300637,-0.026965,125.299626,-0.026977,0.000000,0.000000
meter_27,125.378177,-0.030898,125.361491,-0.031095,0.000000,0.000000
meter_28,124.070355,4.143393,124.053496,4.143192,0.000000,0.000000
meter_29,127.227988,2.031960,127.211542,2.031770,0.000000,0.000000
meter_30,125.457274,-0.027148,125.456062,-0.027162,0.000000,0.000000
meter_31,124.135430,4.147199,124.134206,4.147184,0.000000,0.000000
meter_32,127.302601,2.035474,127.301406,2.035460,0.000000,0.000000
meter_33,126.098914,-0.033319,126.098085,-0.033329,0.000000,0.000000
meter_34,125.385905,4.153788,125.385072,4.153778,0.000000,0.000000
meter_35,127.025660,2.040189,127.024837,2.040179,0.000000,0.000000
meter_36,125.473743,-0.026856,125.472733,-0.026868,0.000000,0.000000
meter_37,125.475149,-0.026783,125.474409,-0.026792,0.000000,0.000000
meter_38,125.096899,-0.035981,125.063104,-0.036379,0.000000,0.000000
meter_39,125.721016,-0.031155,125.714362,-0.031233,0.000000,0.000000
meter_40,124.680207,4.148875,124.673498,4.148796,0.000000,0.000000
meter_41,127.162642,2.036426,127.156063,2.036349,0.000000,0.000000
meter_42,125.301804,-0.026893,125.301063,-0.026902,0.000000,0.000000
meter_43,126.096037,-0.033453,126.094770,-0.033468,0.000000,0.000000
meter_44,126.096037,-0.033453,126.094770,-0.033468,0.000000,0.000000
meter_45,126.096037,-0.033453,126.094770,-0.033468,0.000000,0.000000
meter_46,125.383398,4.153666,125.382125,4.153651,0.000000,0.000000
meter_47,125.383398,4.153666,125.382125,4.153651,0.000000,0.000000
meter_48,125.383398,4.153666,125.382125,4.153651,0.000000,0.000000
meter_49,127.023185,2.040071,127.021927,2.040056,0.000000,0.000000
meter_50,127.023185,2.040071,127.021927,2.040056,0.000000,0.000000
meter_51,127.023185,2.040071,127.021927,2.040056,0.000000,0.000000
meter_52,125.301725,-0.026894,125.300983,-0.026902,0.000000,0.000000
meter_53,126.096511,-0.033438,126.095245,-0.033453,0.000000,0.000000
meter_54,126.096511,-0.033438,126.095245,-0.033453,0.000000,0.000000
meter_55,126.096511,-0.033438,126.095245,-0.033453,0.000000,0.000000
meter_56,125.383507,4.153668,125.382234,4.153653,0.000000,0.000000
meter_57,125.383507,4.153668,125.382234,4.153653,0.000000,0.000000
meter_58,125.383507,4.153668,125.382234,4.153653,0.000000,0.000000
meter_59,127.023291,2.040072,127.022034,2.040057,0.000000,0.000000
meter_60,127.023291,2.040072,127.022034,2.040057,0.000000,0.000000
meter_61,127.023291,2.040072,127.022034,2.040057,0.000000,0.000000
meter_62,126.192082,-0.038206,126.181032,-0.038335,0.000000,0.000000
meter_63,125.733419,4.153478,125.722329,4.153348,0.000000,0.000000
meter_64,126.773023,2.039615,126.762023,2.039487,0.000000,0.000000
meter_65,125.033695,-0.027199,125.032580,-0.027212,0.000000,0.000000
meter_66,125.033695,-0.027199,125.032580,-0.027212,0.000000,0.000000
meter_67,123.627781,4.146727,123.626653,4.146714,0.000000,0.000000
meter_68,123.627781,4.146727,123.626653,4.146714,0.000000,0.000000
meter_69,126.874543,2.034596,126.873444,2.034583,0.000000,0.000000
meter_70,126.874543,2.034596,126.873444,2.034583,0.000000,0.000000
meter_71,125.171486,-0.028505,125.165664,-0.028574,0.000000,0.000000
meter_72,125.171486,-0.028505,125.165664,-0.028574,0.000000,0.000000
meter_73,125.171486,-0.028505,125.165664,-0.028574,0.000000,0.000000
meter_74,125.171486,-0.028505,125.165664,-0.028574,0.000000,0.000000
meter_75,125.171486,-0.028505,125.165664,-0.028574,0.000000,0.000000
meter_76,125.171486,-0.028505,125.165664,-0.028574,0.000000,0.000000
meter_77,125.171486,-0.028505,125.165664,-0.028574,0.000000,0.000000
meter_78,125.171486,-0.028505,125.165664,-0.028574,0.000000,0.000000
meter_79,125.171486,-0.028505,125.165664,-0.028574,0.000000,0.000000
meter_80,125.171486,-0.028505,125.165664,-0.028574,0.000000,0.000000
meter_81,123.795751,4.145559,123.789865,4.145489,0.000000,0.000000
meter_82,123.795751,4.145559,123.789865,4.145489,0.000000,0.000000
meter_83,123.795751,4.145559,123.789865,4.145489,0.000000,0.000000
meter_84,123.795751,4.145559,123.789865,4.145489,0.000000,0.000000
meter_85,123.795751,4.145559,123.789865,4.145489,0.000000,0.000000
meter_86,123.795751,4.145559,123.789865,4.145489,0.000000,0.000000
meter_87,123.795751,4.145559,123.789865,4.145489,0.000000,0.000000
meter_88,123.795751,4.145559,123.789865,4.145489,0.000000,0.000000
meter_89,123.795751,4.145559,123.789865,4.145489,0.000000,0.000000
meter_90,123.795751,4.145559,123.789865,4.145489,0.000000,0.000000
meter_91,127.012422,2.033626,127.006684,2.033560,0.000000,0.000000
meter_92,127.012422,2.033626,127.006684,2.033560,0.000000,0.000000
meter_93,127.012422,2.033626,127.006684,2.033560,0.000000,0.000000
meter_94,127.012422,2.033626,127.006684,2.033560,0.000000,0.000000
meter_95,127.012422,2.033626,127.006684,2.033560,0.000000,0.000000
meter_96,127.012422,2.033626,127.006684,2.033560,0.000000,0.000000
meter_97,127.012422,2.033626,127.006684,2.033560,0.000000,0.000000
meter_98,127.012422,2.033626,127.006684,2.033560,0.000000,0.000000
meter_99,127.012422,2.033626,127.006684,2.033560,0.000000,0.000000
meter_100,127.012422,2.033626,127.006684,2.033560,0.000000,0.000000
meter_101,125.244691,-0.026988,125.243416,-0.027003,0.000000,0.000000
meter_102,125.244691,-0.026988,125.243416,-0.027003,0.000000,0.000000
meter_103,125.244691,-0.026988,125.243416,-0.027003,0.000000,0.000000
meter_104,123.890548,4.147172,123.889260,4.147157,0.000000,0.000000
meter_105,123.890548,4.147172,123.889260,4.147157,0.000000,0.000000
meter_106,123.890548,4.147172,123.889260,4.147157,0.000000,0.000000
meter_107,127.088875,2.035295,127.087618,2.035280,0.000000,0.000000
meter_108,127.088875,2.035295,127.087618,2.035280,0.000000,0.000000
meter_109,127.088875,2.035295,127.087618,2.035280,0.000000,0.000000
meter_110,126.307421,-0.035722,126.306317,-0.035735,0.000000,0.000000
meter_111,126.307421,-0.035722,126.306317,-0.035735,0.000000,0.000000
meter_112,125.793290,4.155698,125.792182,4.155685,0.000000,0.000000
meter_113,125.793290,4.155698,125.792182,4.155685,0.000000,0.000000
meter_114,126.912636,2.041428,126.911538,2.041416,0.000000,0.000000
meter_115,126.912636,2.041428,126.911538,2.041416,0.000000,0.000000
meter_116,126.097250,-0.033392,126.096144,-0.033405,0.000000,0.000000
meter_117,126.097250,-0.033392,126.096144,-0.033405,0.000000,0.000000
meter_118,125.384241,4.153715,125.383129,4.153702,0.000000,0.000000
meter_119,125.384241,4.153715,125.383129,4.153702,0.000000,0.000000
meter_120,127.023989,2.040118,127.022892,2.040105,0.000000,0.000000
meter_121,127.023989,2.040118,127.022892,2.040105,0.000000,0.000000
meter_122,125.159023,-0.028619,125.153084,-0.028689,0.000000,0.000000
meter_123,125.159023,-0.028619,125.153084,-0.028689,0.000000,0.000000
meter_124,125.159023,-0.028619,125.153084,-0.028689,0.000000,0.000000
meter_125,125.159023,-0.028619,125.153084,-0.028689,0.000000,0.000000
meter_126,125.159023,-0.028619,125.153084,-0.028689,0.000000,0.000000
meter_127,125.159023,-0.028619,125.153084,-0.028689,0.000000,0.000000
meter_128,125.159023,-0.028619,125.153084,-0.028689,0.000000,0.000000
meter_129,125.159023,-0.028619,125.153084,-0.028689,0.000000,0.000000
meter_130,125.159023,-0.028619,125.153084,-0.028689,0.000000,0.000000
meter_131,125.159023,-0.028619,125.153084,-0.028689,0.000000,0.000000
meter_132,125.159023,-0.028619,125.153084,-0.028689,0.000000,0.000000
meter_133,125.159023,-0.028619,125.153084,-0.028689,0.000000,0.000000
meter_134,125.159023,-0.028619,125.153084,-0.028689,0.000000,0.000000
meter_135,125.159023,-0.028619,125.153084,-0.028689,0.000000,0.000000
meter_136,125.159023,-0.028619,125.153084,-0.028689,0.000000,0.000000
meter_137,125.159023,-0.028619,125.153084,-0.028689,0.000000,0.000000
meter_138,125.159023,-0.028619,125.153084,-0.028689,0.000000,0.000000
meter_139,123.790402,4.145477,123.784398,4.145406,0.000000,0.000000
meter_140,123.790402,4.145477,123.784398,4.145406,0.000000,0.000000
meter_141,123.790402,4.145477,123.784398,4.145406,0.000000,0.000000
meter_142,123.790402,4.145477,123.784398,4.145406,0.000000,0.000000
meter_143,123.790402,4.145477,123.784398,4.145406,0.000000,0.000000
meter_144,123.790402,4.145477,123.784398,4.145406,0.000000,0.000000
meter_145,123.790402,4.145477,123.784398,4.145406,0.000000,0.000000
meter_146,123.790402,4.145477,123.784398,4.145406,0.000000,0.000000
meter_147,123.790402,4.145477,123.784398,4.145406,0.000000,0.000000
meter_148,123.790402,4.145477,123.784398,4.145406,0.000000,0.000000
meter_149,123.790402,4.145477,123.784398,4.145406,0.000000,0.000000
meter_150,123.790402,4.145477,123.784398,4.145406,0.000000,0.000000
meter_151,123.790402,4.145477,123.784398,4.145406,0.000000,0.000000
meter_152,123.790402,4.145477,123.784398,4.145406,0.000000,0.000000
meter_153,123.790402,4.145477,123.784398,4.145406,0.000000,0.000000
meter_154,123.790402,4.145477,123.784398,4.145406,0.000000,0.000000
meter_155,123.790402,4.145477,123.784398,4.145406,0.000000,0.000000
meter_156,127.001541,2.033585,126.995688,2.033517,0.000000,0.000000
meter_157,127.001541,2.033585,126.995688,2.033517,0.000000,0.000000
meter_158,127.001541,2.033585,126.995688,2.033517,0.000000,0.000000
meter_159,127.001541,2.033585,126.995688,2.033517,0.000000,0.000000
meter_160,127.001541,2.033585,126.995688,2.033517,0.000000,0.000000
meter_161,127.001541,2.033585,126.995688,2.033517,0.000000,0.000000
meter_162,127.001541,2.033585,126.995688,2.033517,0.000000,0.000000
meter_163,127.001541,2.033585,126.995688,2.033517,0.000000,0.000000
meter_164,127.001541,2.033585,126.995688,2.033517,0.000000,0.000000
meter_165,127.001541,2.033585,126.995688,2.033517,0.000000,0.000000
meter_166,127.001541,2.033585,126.995688,2.033517,0.000000,0.000000
meter_167,127.001541,2.033585,126.995688,2.033517,0.000000,0.000000
meter_168,127.001541,2.033585,126.995688,2.033517,0.000000,0.000000
meter_169,127.001541,2.033585,126.995688,2.033517,0.000000,0.000000
meter_170,127.001541,2.033585,126.995688,2.033517,0.000000,0.000000
meter_171,127.001541,2.033585,126.995688,2.033517,0.000000,0.000000
meter_172,127.001541,2.033585,126.995688,2.033517,0.000000,0.000000
meter_173,125.702503,-0.029523,125.700285,-0.029550,0.000000,0.000000
meter_174,124.623239,4.149694,124.621002,4.149668,0.000000,0.000000
meter_175,127.204093,2.037329,127.201901,2.037304,0.000000,0.000000
meter_176,125.216232,-0.027349,125.214957,-0.027364,0.000000,0.000000
meter_177,125.216232,-0.027349,125.214957,-0.027364,0.000000,0.000000
meter_178,125.216232,-0.027349,125.214957,-0.027364,0.000000,0.000000
meter_179,123.847946,4.146776,123.846657,4.146760,0.000000,0.000000
meter_180,123.847946,4.146776,123.846657,4.146760,0.000000,0.000000
meter_181,123.847946,4.146776,123.846657,4.146760,0.000000,0.000000
meter_182,127.057828,2.034818,127.056571,2.034803,0.000000,0.000000
meter_183,127.057828,2.034818,127.056571,2.034803,0.000000,0.000000
meter_184,127.057828,2.034818,127.056571,2.034803,0.000000,0.000000
meter_185,126.306497,-0.035766,126.305233,-0.035781,0.000000,0.000000
meter_186,126.306497,-0.035766,126.305233,-0.035781,0.000000,0.000000
meter_187,126.306497,-0.035766,126.305233,-0.035781,0.000000,0.000000
meter_188,125.792366,4.155653,125.791096,4.155638,0.000000,0.000000
meter_189,125.792366,4.155653,125.791096,4.155638,0.000000,0.000000
meter_190,125.792366,4.155653,125.791096,4.155638,0.000000,0.000000
meter_191,126.911720,2.041385,126.910461,2.041370,0.000000,0.000000
meter_192,126.911720,2.041385,126.910461,2.041370,0.000000,0.000000
meter_193,126.911720,2.041385,126.910461,2.041370,0.000000,0.000000
meter_194,126.070270,-0.034677,126.064374,-0.034746,0.000000,0.000000
meter_195,126.070270,-0.034677,126.064374,-0.034746,0.000000,0.000000
meter_196,126.070270,-0.034677,126.064374,-0.034746,0.000000,0.000000
meter_197,126.070270,-0.034677,126.064374,-0.034746,0.000000,0.000000
meter_198,126.070270,-0.034677,126.064374,-0.034746,0.000000,0.000000
meter_199,126.070270,-0.034677,126.064374,-0.034746,0.000000,0.000000
meter_200,126.070270,-0.034677,126.064374,-0.034746,0.000000,0.000000
meter_201,126.070270,-0.034677,126.064374,-0.034746,0.000000,0.000000
meter_202,126.070270,-0.034677,126.064374,-0.034746,0.000000,0.000000
meter_203,126.070270,-0.034677,126.064374,-0.034746,0.000000,0.000000
meter_204,126.070270,-0.034677,126.064374,-0.034746,0.000000,0.000000
meter_205,126.070270,-0.034677,126.064374,-0.034746,0.000000,0.000000
meter_206,126.070270,-0.034677,126.064374,-0.034746,0.000000,0.000000
meter_207,126.070270,-0.034677,126.064374,-0.034746,0.000000,0.000000
meter_208,126.070270,-0.034677,126.064374,-0.034746,0.000000,0.000000
meter_209,126.070270,-0.034677,126.064374,-0.034746,0.000000,0.000000
meter_210,126.070270,-0.034677,126.064374,-0.034746,0.000000,0.000000
meter_211,125.357209,4.152416,125.351279,4.152346,0.000000,0.000000
meter_212,125.357209,4.152416,125.351279,4.152346,0.000000,0.000000
meter_213,125.357209,4.152416,125.351279,4.152346,0.000000,0.000000
meter_214,125.357209,4.152416,125.351279,4.152346,0.000000,0.000000
meter_215,125.357209,4.152416,125.351279,4.152346,0.000000,0.000000
meter_216,125.357209,4.152416,125.351279,4.152346,0.000000,0.000000
meter_217,125.357209,4.152416,125.351279,4.152346,0.000000,0.000000
meter_218,125.357209,4.152416,125.351279,4.152346,0.000000,0.000000
meter_219,125.357209,4.152416,125.351279,4.152346,0.000000,0.000000
meter_220,125.357209,4.152416,125.351279,4.152346,0.000000,0.000000
meter_221,125.357209,4.152416,125.351279,4.152346,0.000000,0.000000
meter_222,125.357209,4.152416,125.351279,4.152346,0.000000,0.000000
meter_223,125.357209,4.152416,125.351279,4.152346,0.000000,0.000000
meter_224,125.357209,4.152416,125.351279,4.152346,0.000000,0.000000
meter_225,125.357209,4.152416,125.351279,4.152346,0.000000,0.000000
meter_226,125.357209,4.152416,125.351279,4.152346,0.000000,0.000000
meter_227,125.357209,4.152416,125.351279,4.152346,0.000000,0.000000
meter_228,126.996832,2.038840,126.990978,2.038772,0.000000,0.000000
meter_229,126.996832,2.038840,126.990978,2.038772,0.000000,0.000000
meter_230,126.996832,2.038840,126.990978,2.038772,0.000000,0.000000
meter_231,126.996832,2.038840,126.990978,2.038772,0.000000,0.000000
meter_232,126.996832,2.038840,126.990978,2.038772,0.000000,0.000000
meter_233,126.996832,2.038840,126.990978,2.038772,0.000000,0.000000
meter_234,126.996832,2.038840,126.990978,2.038772,0.000000,0.000000
meter_235,126.996832,2.038840,126.990978,2.038772,0.000000,0.000000
meter_236,126.996832,2.038840,126.990978,2.038772,0.000000,0.000000
meter_237,126.996832,2.038840,126.990978,2.038772,0.000000,0.000000
meter_238,126.996832,2.038840,126.990978,2.038772,0.000000,0.000000
meter_239,126.996832,2.038840,126.990978,2.038772,0.000000,0.000000
meter_240,126.996832,2.038840,126.990978,2.038772,0.000000,0.000000
meter_241,126.996832,2.038840,126.990978,2.038772,0.000000,0.000000
meter_242,126.996832,2.038840,126.990978,2.038772,0.000000,0.000000
meter_243,126.996832,2.038840,126.990978,2.038772,0.000000,0.000000
meter_244,126.996832,2.038840,126.990978,2.038772,0.000000,0.000000
meter_245,125.020393,-0.028387,125.014818,-0.028453,0.000000,0.000000
meter_246,125.020393,-0.028387,125.014818,-0.028453,0.000000,0.000000
meter_247,125.020393,-0.028387,125.014818,-0.028453,0.000000,0.000000
meter_248,125.020393,-0.028387,125.014818,-0.028453,0.000000,0.000000
meter_249,125.020393,-0.028387,125.014818,-0.028453,0.000000,0.000000
meter_250,123.614221,4.145512,123.608584,4.145444,0.000000,0.000000
meter_251,123.614221,4.145512,123.608584,4.145444,0.000000,0.000000
meter_252,123.614221,4.145512,123.608584,4.145444,0.000000,0.000000
meter_253,123.614221,4.145512,123.608584,4.145444,0.000000,0.000000
meter_254,123.614221,4.145512,123.608584,4.145444,0.000000,0.000000
meter_255,126.861437,2.033440,126.855942,2.033376,0.000000,0.000000
meter_256,126.861437,2.033440,126.855942,2.033376,0.000000,0.000000
meter_257,126.861437,2.033440,126.855942,2.033376,0.000000,0.000000
meter_258,126.861437,2.033440,126.855942,2.033376,0.000000,0.000000
meter_259,126.861437,2.033440,126.855942,2.033376,0.000000,0.000000
meter_260,126.307594,-0.035720,126.306491,-0.035733,0.000000,0.000000
meter_261,126.307594,-0.035720,126.306491,-0.035733,0.000000,0.000000
meter_262,125.793459,4.155699,125.792351,4.155686,0.000000,0.000000
meter_263,125.793459,4.155699,125.792351,4.155686,0.000000,0.000000
meter_264,126.912803,2.041430,126.911705,2.041417,0.000000,0.000000
meter_265,126.912803,2.041430,126.911705,2.041417,0.000000,0.000000
meter_266,125.033411,-0.027199,125.032296,-0.027212,0.000000,0.000000
meter_267,123.627488,4.146728,123.626361,4.146714,0.000000,0.000000
meter_268,126.874026,2.034596,126.872927,2.034583,0.000000,0.000000
meter_269,125.218276,-0.027308,125.217163,-0.027321,0.000000,0.000000
meter_270,125.218276,-0.027308,125.217163,-0.027321,0.000000,0.000000
meter_271,123.850501,4.146817,123.849375,4.146804,0.000000,0.000000
meter_272,123.850501,4.146817,123.849375,4.146804,0.000000,0.000000
meter_273,127.060270,2.034860,127.059173,2.034847,0.000000,0.000000
meter_274,127.060270,2.034860,127.059173,2.034847,0.000000,0.000000
meter_275,125.983528,-0.032443,125.981516,-0.032467,0.000000,0.000000
meter_276,125.026291,-0.028235,125.021273,-0.028294,0.000000,0.000000
meter_277,125.026291,-0.028235,125.021273,-0.028294,0.000000,0.000000
meter_278,125.026291,-0.028235,125.021273,-0.028294,0.000000,0.000000
meter_279,125.026291,-0.028235,125.021273,-0.028294,0.000000,0.000000
meter_280,125.026291,-0.028235,125.021273,-0.028294,0.000000,0.000000
meter_281,125.026291,-0.028235,125.021273,-0.028294,0.000000,0.000000
meter_282,123.620156,4.145668,123.615082,4.145607,0.000000,0.000000
meter_283,123.620156,4.145668,123.615082,4.145607,0.000000,0.000000
meter_284,123.620156,4.145668,123.615082,4.145607,0.000000,0.000000
meter_285,123.620156,4.145668,123.615082,4.145607,0.000000,0.000000
meter_286,123.620156,4.145668,123.615082,4.145607,0.000000,0.000000
meter_287,123.620156,4.145668,123.615082,4.145607,0.000000,0.000000
meter_288,126.867239,2.033588,126.862294,2.033530,0.000000,0.000000
meter_289,126.867239,2.033588,126.862294,2.033530,0.000000,0.000000
meter_290,126.867239,2.033588,126.862294,2.033530,0.000000,0.000000
meter_291,126.867239,2.033588,126.862294,2.033530,0.000000,0.000000
meter_292,126.867239,2.033588,126.862294,2.033530,0.000000,0.000000
meter_293,126.867239,2.033588,126.862294,2.033530,0.000000,0.000000
meter_294,125.272063,-0.027084,125.271321,-0.027093,0.000000,0.000000
meter_295,125.528091,-0.032349,125.511425,-0.032545,0.000000,0.000000
meter_296,124.354359,4.144773,124.337538,4.144573,0.000000,0.000000
meter_297,127.176658,2.032896,127.160206,2.032706,0.000000,0.000000
meter_298,125.241962,-0.028841,125.235282,-0.028919,0.000000,0.000000
meter_299,123.879271,4.145292,123.872519,4.145211,0.000000,0.000000
meter_300,127.082875,2.033431,127.076291,2.033355,0.000000,0.000000
meter_301,125.044143,-0.027180,125.043028,-0.027194,0.000000,0.000000
meter_302,123.638203,4.146746,123.637075,4.146732,0.000000,0.000000
meter_303,126.884880,2.034613,126.883782,2.034600,0.000000,0.000000
meter_304,125.790369,-0.030100,125.789261,-0.030113,0.000000,0.000000
meter_305,124.788219,4.150783,124.787102,4.150770,0.000000,0.000000
meter_306,127.171767,2.038147,127.170671,2.038134,0.000000,0.000000
meter_307,125.473885,-0.026855,125.472875,-0.026867,0.000000,0.000000
meter_308,125.219604,-0.027204,125.218862,-0.027213,0.000000,0.000000
meter_309,123.851342,4.146923,123.850592,4.146914,0.000000,0.000000
meter_310,127.061152,2.034958,127.060420,2.034950,0.000000,0.000000
meter_311,126.068459,-0.034873,126.061824,-0.034951,0.000000,0.000000
meter_312,125.355323,4.152217,125.348649,4.152138,0.000000,0.000000
meter_313,126.995366,2.038657,126.988778,2.038581,0.000000,0.000000
meter_314,125.058481,-0.027112,125.057367,-0.027125,0.000000,0.000000
meter_315,125.058481,-0.027112,125.057367,-0.027125,0.000000,0.000000
meter_316,123.658020,4.146835,123.656893,4.146822,0.000000,0.000000
meter_317,123.658020,4.146835,123.656893,4.146822,0.000000,0.000000
meter_318,126.899820,2.034730,126.898721,2.034717,0.000000,0.000000
meter_319,126.899820,2.034730,126.898721,2.034717,0.000000,0.000000
meter_320,125.212967,-0.027607,125.210740,-0.027634,0.000000,0.000000
meter_321,123.845129,4.146511,123.842878,4.146484,0.000000,0.000000
meter_322,127.055019,2.034568,127.052824,2.034543,0.000000,0.000000
meter_323,125.175344,-0.028812,125.168661,-0.028891,0.000000,0.000000
meter_324,123.806736,4.145280,123.799980,4.145199,0.000000,0.000000
meter_325,127.017531,2.033396,127.010944,2.033319,0.000000,0.000000
meter_326,125.009975,-0.028257,125.004957,-0.028316,0.000000,0.000000
meter_327,125.009975,-0.028257,125.004957,-0.028316,0.000000,0.000000
meter_328,125.009975,-0.028257,125.004957,-0.028316,0.000000,0.000000
meter_329,125.009975,-0.028257,125.004957,-0.028316,0.000000,0.000000
meter_330,125.009975,-0.028257,125.004957,-0.028316,0.000000,0.000000
meter_331,125.009975,-0.028257,125.004957,-0.028316,0.000000,0.000000
meter_332,123.603838,4.145647,123.598764,4.145586,0.000000,0.000000
meter_333,123.603838,4.145647,123.598764,4.145586,0.000000,0.000000
meter_334,123.603838,4.145647,123.598764,4.145586,0.000000,0.000000
meter_335,123.603838,4.145647,123.598764,4.145586,0.000000,0.000000
meter_336,123.603838,4.145647,123.598764,4.145586,0.000000,0.000000
meter_337,123.603838,4.145647,123.598764,4.145586,0.000000,0.000000
meter_338,126.848417,2.033512,126.844395,2.033473,0.000000,0.000000
meter_339,126.848417,2.033512,126.844395,2.033473,0.000000,0.000000
meter_340,126.848417,2.033512,126.844395,2.033473,0.000000,0.000000
meter_341,126.848417,2.033512,126.844395,2.033473,0.000000,0.000000
meter_342,126.848417,2.033512,126.844395,2.033473,0.000000,0.000000
meter_343,126.848417,2.033512,126.844395,2.033473,0.000000,0.000000
meter_344,125.271872,-0.027084,125.271130,-0.027093,0.000000,0.000000
meter_345,125.029939,-0.027200,125.028824,-0.027214,0.000000,0.000000
meter_346,123.624006,4.146726,123.622879,4.146713,0.000000,0.000000
meter_347,126.870601,2.034595,126.869502,2.034582,0.000000,0.000000
meter_348,125.038405,-0.028168,125.033388,-0.028227,0.000000,0.000000
meter_349,125.038405,-0.028168,125.033388,-0.028227,0.000000,0.000000
meter_350,125.038405,-0.028168,125.033388,-0.028227,0.000000,0.000000
meter_351,125.038405,-0.028168,125.033388,-0.028227,0.000000,0.000000
meter_352,125.038405,-0.028168,125.033388,-0.028227,0.000000,0.000000
meter_353,125.038405,-0.028168,125.033388,-0.028227,0.000000,0.000000
meter_354,123.637747,4.145756,123.632674,4.145695,0.000000,0.000000
meter_355,123.637747,4.145756,123.632674,4.145695,0.000000,0.000000
meter_356,123.637747,4.145756,123.632674,4.145695,0.000000,0.000000
meter_357,123.637747,4.145756,123.632674,4.145695,0.000000,0.000000
meter_358,123.637747,4.145756,123.632674,4.145695,0.000000,0.000000
meter_359,123.637747,4.145756,123.632674,4.145695,0.000000,0.000000
meter_360,126.880001,2.033703,126.875056,2.033646,0.000000,0.000000
meter_361,126.880001,2.033703,126.875056,2.033646,0.000000,0.000000
meter_362,126.880001,2.033703,126.875056,2.033646,0.000000,0.000000
meter_363,126.880001,2.033703,126.875056,2.033646,0.000000,0.000000
meter_364,126.880001,2.033703,126.875056,2.033646,0.000000,0.000000
meter_365,126.880001,2.033703,126.875056,2.033646,0.000000,0.000000
meter_366,125.218202,-0.027308,125.217089,-0.027321,0.000000,0.000000
meter_367,125.218202,-0.027308,125.217089,-0.027321,0.000000,0.000000
meter_368,123.850428,4.146817,123.849303,4.146803,0.000000,0.000000
meter_369,123.850428,4.146817,123.849303,4.146803,0.000000,0.000000
meter_370,127.060198,2.034859,127.059101,2.034847,0.000000,0.000000
meter_371,127.060198,2.034859,127.059101,2.034847,0.000000,0.000000
meter_372,125.484633,-0.028280,125.479078,-0.028345,0.000000,0.000000
meter_373,125.484633,-0.028280,125.479078,-0.028345,0.000000,0.000000
meter_374,125.484633,-0.028280,125.479078,-0.028345,0.000000,0.000000
meter_375,125.484633,-0.028280,125.479078,-0.028345,0.000000,0.000000
meter_376,125.484633,-0.028280,125.479078,-0.028345,0.000000,0.000000
meter_377,124.216223,4.146839,124.210612,4.146772,0.000000,0.000000
meter_378,124.216223,4.146839,124.210612,4.146772,0.000000,0.000000
meter_379,124.216223,4.146839,124.210612,4.146772,0.000000,0.000000
meter_380,124.216223,4.146839,124.210612,4.146772,0.000000,0.000000
meter_381,124.216223,4.146839,124.210612,4.146772,0.000000,0.000000
meter_382,127.280597,2.035162,127.275119,2.035098,0.000000,0.000000
meter_383,127.280597,2.035162,127.275119,2.035098,0.000000,0.000000
meter_384,127.280597,2.035162,127.275119,2.035098,0.000000,0.000000
meter_385,127.280597,2.035162,127.275119,2.035098,0.000000,0.000000
meter_386,127.280597,2.035162,127.275119,2.035098,0.000000,0.000000
meter_387,125.219570,-0.027303,125.218457,-0.027316,0.000000,0.000000
meter_388,123.851284,4.146823,123.850158,4.146809,0.000000,0.000000
meter_389,127.061101,2.034862,127.060004,2.034849,0.000000,0.000000
meter_390,126.073569,-0.034573,126.068040,-0.034638,0.000000,0.000000
meter_391,126.073569,-0.034573,126.068040,-0.034638,0.000000,0.000000
meter_392,126.073569,-0.034573,126.068040,-0.034638,0.000000,0.000000
meter_393,126.073569,-0.034573,126.068040,-0.034638,0.000000,0.000000
meter_394,126.073569,-0.034573,126.068040,-0.034638,0.000000,0.000000
meter_395,125.360481,4.152520,125.354921,4.152455,0.000000,0.000000
meter_396,125.360481,4.152520,125.354921,4.152455,0.000000,0.000000
meter_397,125.360481,4.152520,125.354921,4.152455,0.000000,0.000000
meter_398,125.360481,4.152520,125.354921,4.152455,0.000000,0.000000
meter_399,125.360481,4.152520,125.354921,4.152455,0.000000,0.000000
meter_400,127.000418,2.038953,126.994929,2.038890,0.000000,0.000000
meter_401,127.000418,2.038953,126.994929,2.038890,0.000000,0.000000
meter_402,127.000418,2.038953,126.994929,2.038890,0.000000,0.000000
meter_403,127.000418,2.038953,126.994929,2.038890,0.000000,0.000000
meter_404,127.000418,2.038953,126.994929,2.038890,0.000000,0.000000
meter_405,126.161118,-0.034068,126.160013,-0.034080,0.000000,0.000000
meter_406,126.161118,-0.034068,126.160013,-0.034080,0.000000,0.000000
meter_407,125.506347,4.154294,125.505237,4.154281,0.000000,0.000000
meter_408,125.506347,4.154294,125.505237,4.154281,0.000000,0.000000
meter_409,126.995789,2.040506,126.994691,2.040493,0.000000,0.000000
meter_410,126.995789,2.040506,126.994691,2.040493,0.000000,0.000000
capacitor_4330206E,7244.622356,-0.026388,7169.404091,4.148013,7351.400187,2.036383
capacitor_P5374883,7220.122662,-0.026873,7138.951151,4.147060,7326.392858,2.034911
capacitor_P5595832,7233.077646,-0.026883,7154.720584,4.147296,7339.432370,2.035377
source_17916,7199.770000,0.000000,7199.770000,4.188790,7199.770000,2.094395
node_17916,7259.369977,-0.032622,7252.273974,4.159038,7293.964105,2.048414
node_4330204E_17916,7243.392367,-0.026409,7167.751524,4.147963,7350.100108,2.036294
node_J016A-2P_17916,7229.194933,-0.027007,7150.195138,4.147125,7335.531735,2.035150
node_ND173046028_17916,7284.510750,-0.033771,7246.707740,4.154594,7332.699468,2.040799
node_PME3089-1_17916,7228.523569,-0.027011,7149.522101,4.147120,7334.873056,2.035147
node_4008031E_17916_1,7293.128660,-0.035587,7264.111975,4.156123,7326.528900,2.041783
node_4330205E_17916,7243.911862,-0.026400,7168.449589,4.147984,7350.649190,2.036331
node_P5497746_F_17916,7234.749309,-0.026692,7157.103183,4.147526,0.000000,0.000000
node_P5506503-1_17916,7280.714113,-0.033090,7239.550853,4.154021,7334.216975,2.040416
node_PME3093-4_17916,7280.675762,-0.033088,7239.513479,4.154023,7334.177288,2.040418
node_P5444357-1_17916,7280.785733,-0.033097,7239.620151,4.154013,7334.291533,2.040408
node_J578A-1P_17916,7219.877639,-0.026894,7138.709350,4.147039,7326.148436,2.034892
node_2134547E_17916_1,7280.822277,-0.033091,7239.655331,4.154019,7334.326441,2.040414
node_61780305_17916,7219.346245,-0.026898,7138.176040,4.147036,7325.612305,2.034889
node_S5075867_17916,7274.472771,-0.031903,0.000000,0.000000,0.000000,0.000000
node_P5078132-1_T_17916,7220.094027,-0.026877,7138.923087,4.147056,7326.365628,2.034907
node_P5320414-T_F_17916,7292.915317,-0.035425,7263.231973,4.155997,7327.856773,2.041723
node_164862030_17916,7219.877748,-0.026894,7138.709460,4.147039,7326.148545,2.034891
node_GS1145-1_17916_1,7230.129011,-0.027001,7151.131546,4.147131,7336.448166,2.035155
node_ND61804802_17916,7244.411839,-0.026391,7169.121275,4.148004,7351.177667,2.036367
node_4465700E_17916,7234.764679,-0.026691,7157.099727,4.147528,7341.241160,2.035674
node_GS1145-4_17916,7230.129170,-0.027001,7151.131718,4.147131,7336.448334,2.035155
node_P5076411-1_T_17916,7219.453329,-0.026897,7138.283869,4.147036,7325.732148,2.034889
node_GS0645-4_17916,7230.055952,-0.027005,7151.087545,4.147126,7336.401446,2.035154
node_GS0733-3_T_17916,7276.402279,-0.032285,7231.141290,4.153298,7336.352706,2.039926
node_B5077102_F_17916,7244.743548,-0.026584,0.000000,0.000000,0.000000,0.000000
node_P5398618-A_17916,7230.024136,-0.027007,7151.056358,4.147124,7336.370740,2.035152
node_P5506503-1_T_17916,7280.714064,-0.033090,7239.550803,4.154021,7334.216926,2.040416
node_P5497748-2_17916,7234.732691,-0.026693,7157.106923,4.147525,0.000000,0.000000
node_151604155_17916,7233.082167,-0.026883,7154.725055,4.147296,7339.436957,2.035378
node_GS0645-1_17916_1,7230.055836,-0.027005,7151.087438,4.147126,7336.401341,2.035154
node_J2114-1P_17916,7220.090602,-0.026878,7138.919732,4.147055,7326.362395,2.034906
node_153252626_17916_1,7233.021288,-0.026883,7154.736152,4.147295,0.000000,0.000000
node_RCS3190-3_17916,7233.080640,-0.026882,7154.723547,4.147297,7339.435401,2.035378
node_P5320416-T_F_17916,7292.905294,-0.035426,7263.222194,4.155996,7327.847117,2.041721
node_4471501E_17916,7258.319255,-0.028926,7196.010950,4.150302,7345.009289,2.037912
node_149943048_17916_1,7258.308653,-0.028926,7196.000347,4.150302,7344.998864,2.037912
node_GS1128-3_17916,7230.544548,-0.026976,7151.502451,4.147157,7336.817809,2.035175
node_ND105879213_17916,7230.682851,-0.026970,7151.625706,4.147164,7336.941916,2.035180
node_1680892E_17916,7289.206652,-0.035244,7262.735523,4.156461,7322.735045,2.042550
node_61803587_17916,7280.632830,-0.033094,7239.471650,4.154016,7334.135203,2.040412
node_P5076413-1_17916,7219.367401,-0.026897,7138.197705,4.147036,7325.647844,2.034889
node_294775E_17916_1,7234.239470,-0.027072,7155.783892,4.147119,7340.504989,2.035186
node_P5077650-1_17916,7219.919178,-0.026879,7138.747829,4.147054,7326.194211,2.034905
node_4471501E_17916_1,7258.319245,-0.028926,7196.010940,4.150302,7345.009279,2.037912
node_P5078992-B_17916,7219.970590,-0.026879,7138.799390,4.147054,7326.244652,2.034906
node_61779686_17916,7219.459552,-0.026897,7138.290109,4.147036,7325.738253,2.034889
node_61777919_17916,7230.544903,-0.026976,7151.502798,4.147157,7336.818148,2.035175
node_GS0494-3_17916,7244.783115,-0.026578,7169.087854,4.147806,7351.445848,2.036126
node_OS0970-3_17916,7289.210170,-0.035244,7262.738896,4.156461,7322.738442,2.042550
node_J412-3P_17916,7219.459532,-0.026897,7138.290089,4.147036,7325.738233,2.034889
node_P5512210-1_17916,7258.308029,-0.028926,7195.999723,4.150302,7344.998250,2.037912
node_GS1128-1_17916,7230.545191,-0.026976,7151.503079,4.147157,7336.818421,2.035175
node_1789372E_17916,7220.823889,-0.026806,7139.968566,4.147148,7327.131601,2.035026
node_61781259_17916,7229.195100,-0.027007,7150.195307,4.147125,7335.531900,2.035150
node_B5077100-1_17916,7244.751737,-0.026583,0.000000,0.000000,0.000000,0.000000
node_61777935_17916,7230.544835,-0.026976,7151.502732,4.147157,7336.818083,2.035175
node_GS1145-3_17916,7230.129525,-0.027001,7151.132055,4.147131,7336.448663,2.035155
node_168743914_17916,7219.146017,-0.026899,7137.975283,4.147035,7325.415873,2.034888
node_P5444277_17916,7228.031429,-0.027014,7149.028734,4.147117,7334.390214,2.035144
node_GS0535-3_17916,7219.980347,-0.026892,7138.811924,4.147041,7326.251439,2.034893
node_PS0028_17916,7219.405232,-0.026790,7138.287299,4.147138,7325.721288,2.034997
node_PME3089-3_17916,7228.523569,-0.027011,7149.522101,4.147120,7334.873056,2.035147
node_GS0494-4_17916,7244.792364,-0.026577,7169.096886,4.147807,7351.455074,2.036127
node_61804058_17916,7219.453831,-0.026897,7138.284373,4.147036,7325.732640,2.034889
node_4471508E_17916_1,7274.480583,-0.031903,7227.314508,4.152960,7337.545368,2.039704
node_2115384E_17916,7247.242690,-0.026870,7171.431370,4.147534,7353.804772,2.035835
node_61778356_17916,7220.090651,-0.026878,7138.919782,4.147055,7326.362444,2.034906
node_153252686_17916_1,7233.009749,-0.026884,0.000000,0.000000,0.000000,0.000000
node_P5497748_F_17916,7234.732681,-0.026693,7157.106923,4.147525,0.000000,0.000000
node_GS0535-1_17916_1,7219.980014,-0.026892,7138.811587,4.147041,7326.251107,2.034893
node_4008032E_17916_1,7292.927030,-0.035423,7263.243403,4.155999,7327.868060,2.041725
node_V5073018_17916,7230.055672,-0.027005,0.000000,0.000000,0.000000,0.000000
node_P5620916-2_17916,7233.020167,-0.026884,0.000000,0.000000,0.000000,0.000000
node_1130036E_17916,7228.717845,-0.026932,7149.304105,4.147167,7334.985659,2.035155
node_P5468242-T_T_17916,7229.991397,-0.027004,7150.994494,4.147128,7336.313643,2.035153
node_P5320417-1_17916,7292.899368,-0.035427,7263.216413,4.155995,7327.841409,2.041720
node_B5077100-2_17916,7244.751786,-0.026583,0.000000,0.000000,0.000000,0.000000
node_4471508E_17916,7274.480573,-0.031903,7227.314508,4.152960,7337.545368,2.039704
node_294781E_17916_1,7219.373526,-0.026790,7138.250691,4.147137,7325.689675,2.034996
node_P5076416-1_T_17916,7220.798382,-0.026810,7139.943545,4.147144,7327.107178,2.035023
node_P5447256-1_17916,7280.768854,-0.033099,7239.605000,4.154010,7334.276760,2.040406
node_2134547E_17916,7280.822593,-0.033091,7239.655648,4.154018,7334.326755,2.040414
node_1680891E_17916,7289.206702,-0.035244,7262.735529,4.156461,7322.735106,2.042550
node_P5320416-A_17916,7292.905363,-0.035426,7263.222263,4.155996,7327.847186,2.041721
node_294776E_17916_1,7230.673941,-0.026969,7151.617986,4.147165,7336.932940,2.035181
node_GS0515-5_17916,7220.126747,-0.026872,7138.955190,4.147061,7326.397003,2.034912
node_4465699E_17916,7231.600310,-0.026643,7153.420022,4.147524,7338.072643,2.035630
node_B5077101_F_17916,7244.745363,-0.026583,0.000000,0.000000,0.000000,0.000000
node_P5446952-1_17916,7246.717581,-0.026783,7173.498352,4.148366,7350.390439,2.036618
node_4330207E_17916,7246.735062,-0.026780,7173.515482,4.148369,7350.407180,2.036620
node_168743887_17916_1,7219.159439,-0.026899,7137.988717,4.147035,7325.429029,2.034888
node_GS0645-2_17916,7230.055880,-0.027005,7151.087483,4.147126,7336.401385,2.035154
node_ND90415713_17916,7220.387267,-0.026802,7139.450017,4.147143,7326.697606,2.035016
node_83712829_17916,7280.676694,-0.033088,7239.514392,4.154023,7334.178205,2.040418
node_83712797_17916_1,7280.674830,-0.033088,7239.512566,4.154023,7334.176371,2.040418
node_168743914_17916_1,7219.146047,-0.026899,7137.975314,4.147035,7325.415903,2.034888
node_P5079023-1_T_17916,7228.716255,-0.026932,7149.302543,4.147166,7334.984133,2.035155
node_P5072218_17916,7219.150502,-0.026899,7137.979757,4.147035,7325.420261,2.034888
node_PS0639_17916,7292.842553,-0.035294,7262.594046,4.155885,7329.076930,2.041665
node_P5497747_F_17916,7234.737265,-0.026693,7157.105893,4.147526,0.000000,0.000000
node_J0133-1P_17916,7219.346363,-0.026898,7138.176160,4.147036,7325.612423,2.034889
node_BS6417-L_17916,7220.801137,-0.026810,7139.946247,4.147144,7327.109815,2.035023
node_GS0645-6_17916,7230.055890,-0.027005,7151.087495,4.147126,7336.401397,2.035154
node_ND61804475_17916,7230.122503,-0.027002,7151.125170,4.147130,7336.441887,2.035155
node_B5077102-2_17916,7244.743558,-0.026584,0.000000,0.000000,0.000000,0.000000
node_61781413_17916,7230.055892,-0.027005,7151.087495,4.147126,7336.401397,2.035154
node_ND105879075_17916,7246.735237,-0.026780,7173.515608,4.148369,7350.407371,2.036620
node_61780313_17916,7219.346252,-0.026898,7138.176047,4.147036,7325.612312,2.034889
node_P5468243_17916,7229.953765,-0.027004,7150.956985,4.147128,7336.276831,2.035153
node_61781919_17916,7228.031453,-0.027014,7149.028758,4.147117,7334.390237,2.035144
node_61760338_17916,7244.783144,-0.026578,7169.087854,4.147806,7351.445848,2.036126
node_P5468242-T_F_17916,7229.991387,-0.027003,7150.994484,4.147128,7336.313633,2.035153
node_J016A-3P_17916,7229.195301,-0.027007,7150.195510,4.147125,7335.532098,2.035150
node_ND61804485_17916,7275.243732,-0.032042,7228.781876,4.153084,7337.198808,2.039788
node_153252674_17916_1,7233.019036,-0.026884,0.000000,0.000000,0.000000,0.000000
node_P5320414-B_17916,7292.915287,-0.035425,7263.231943,4.155997,7327.856744,2.041723
node_1130036E_17916_1,7228.717944,-0.026932,7149.304206,4.147167,7334.985756,2.035155
node_J578A-3P_17916,7219.877928,-0.026894,7138.709642,4.147039,7326.148725,2.034891
node_164861868_17916,7219.980198,-0.026892,7138.811773,4.147041,7326.251291,2.034893
node_ND61804461_17916,7292.978389,-0.035428,7263.292805,4.155994,7327.920054,2.041719
node_P5497747-1_17916,7234.737255,-0.026693,7157.105893,4.147526,0.000000,0.000000
node_164862046_17916,7219.877760,-0.026894,7138.709473,4.147039,7326.148558,2.034891
node_P5078993-1_T_17916,7219.947010,-0.026879,7138.775745,4.147054,7326.221517,2.034906
node_P5445351-1_T_17916,7231.596824,-0.026643,7153.416604,4.147524,7338.069305,2.035630
node_61804034_17916,7280.776853,-0.033098,7239.612087,4.154011,7334.283660,2.040407
node_4471503E_17916,7263.058661,-0.029801,7205.200020,4.151086,7342.812956,2.038439
node_294775E_17916,7234.244756,-0.027071,7155.789127,4.147120,7340.510324,2.035186
node_P5078992-T_F_17916,7219.970590,-0.026879,7138.799390,4.147054,7326.244652,2.034906
node_164862038_17916,7219.877778,-0.026894,7138.709491,4.147039,7326.148576,2.034891
node_PME3089-2_17916,7228.523738,-0.027011,7149.522272,4.147120,7334.873222,2.035147
node_ND61804722_17916,7276.402279,-0.032285,7231.141290,4.153298,7336.352706,2.039926
node_J578A-2P_17916,7219.877720,-0.026894,7138.709432,4.147039,7326.148519,2.034891
node_153252626_17916,7233.021268,-0.026883,7154.736152,4.147295,0.000000,0.000000
node_174972563_17916,7246.717775,-0.026783,7173.498542,4.148366,7350.390625,2.036618
node_GS0297-2_T_17916,7274.473136,-0.031903,7227.316961,4.152960,7337.546647,2.039704
node_GS0515-2_17916,7220.125739,-0.026872,7138.954189,4.147061,7326.395982,2.034912
node_S5072114_17916,7220.080921,-0.026878,7138.910025,4.147055,7326.352898,2.034906
node_GS0494-1_17916,7244.783926,-0.026578,7169.088633,4.147806,7351.446651,2.036126
node_P5444213_17916,7280.775966,-0.033098,7239.611266,4.154011,7334.282856,2.040407
node_P5497747-2_17916,7234.737285,-0.026693,7157.105893,4.147526,0.000000,0.000000
node_PME3093-2_17916,7280.675930,-0.033088,7239.513647,4.154023,7334.177455,2.040418
node_P5398618-T_F_17916,7230.024076,-0.027007,7151.056298,4.147124,7336.370681,2.035152
node_2134546E_17916,7276.402279,-0.032285,7231.141290,4.153298,7336.352706,2.039926
node_83712829_17916_1,7280.676861,-0.033088,7239.514560,4.154023,7334.178372,2.040418
node_P5072219_17916,7219.152182,-0.026899,7137.981143,4.147035,7325.412056,2.034888
node_1789372E_17916_1,7220.823810,-0.026806,7139.968486,4.147148,7327.131523,2.035026
node_P5076415-1_17916,7220.793388,-0.026811,7139.938646,4.147143,7327.102397,2.035022
node_61760322_17916,7244.783926,-0.026578,7169.088633,4.147806,7351.446651,2.036126
node_2115380E_17916,7244.772175,-0.026579,7169.090322,4.147805,7351.449229,2.036127
node_BS6417-R_17916,7220.801097,-0.026810,7139.946207,4.147144,7327.109776,2.035023
node_2134549E_17916_1,7284.526072,-0.033771,7246.722926,4.154594,7332.714549,2.040799
node_GS0515-1_17916,7220.125881,-0.026872,7138.954333,4.147061,7326.396124,2.034912
node_164861859_17916,7219.980180,-0.026892,7138.811755,4.147041,7326.251273,2.034893
node_RCS0457_17916,7244.756898,-0.026583,7169.127110,4.147806,7351.424900,2.036131
node_P5398618-B_T_17916,7230.024096,-0.027007,7151.056318,4.147124,7336.370701,2.035152
node_P5078005-1_T_17916,7230.098758,-0.027002,7151.101503,4.147130,7336.418660,2.035154
node_J2114-2P_17916,7220.090627,-0.026878,7138.919758,4.147055,7326.362421,2.034906
node_1775299E_17916,7280.787241,-0.033097,7239.621438,4.154013,7334.292694,2.040409
node_ND61804563_17916,7220.836001,-0.026808,7139.980382,4.147147,7327.143821,2.035025
node_4330207E_17916_1,7246.735112,-0.026780,7173.515532,4.148369,7350.407229,2.036620
node_ND61804320_17916,7290.990814,-0.034956,7259.061862,4.155598,7329.885894,2.041472
node_J412-2P_17916,7219.459594,-0.026897,7138.290152,4.147036,7325.738294,2.034889
node_P5444357-1_T_17916,7280.785723,-0.033097,7239.620141,4.154013,7334.291524,2.040408
node_P5076693-1_T_17916,7284.458561,-0.033771,7246.655712,4.154594,7332.647911,2.040798
node_GS0645-5_17916,7219.980180,-0.026892,7138.811755,4.147041,7326.251273,2.034893
node_PME3063-1_17916_1,7280.787103,-0.033097,7239.621488,4.154013,7334.292851,2.040408
node_61781654_17916,7230.129230,-0.027001,7151.131769,4.147131,7336.448383,2.035155
node_J0133-2P_17916,7219.346212,-0.026898,7138.176007,4.147036,7325.612273,2.034889
node_4008031E_17916,7293.139042,-0.035586,7264.122295,4.156124,7326.542492,2.041784
node_153252686_17916,7233.009758,-0.026884,0.000000,0.000000,0.000000,0.000000
node_136541331_17916_1,7263.054135,-0.029801,7205.195496,4.151086,7342.808502,2.038439
node_4008032E_17916,7292.926962,-0.035423,7263.243333,4.155999,7327.867991,2.041725
node_61781421_17916,7230.055891,-0.027005,7151.087495,4.147126,7336.401397,2.035154
node_61779702_17916,7219.459554,-0.026897,7138.290111,4.147036,7325.738255,2.034889
node_4330204E_17916_1,7243.382427,-0.026410,7167.741773,4.147962,7350.090139,2.036293
node_294776E_17916,7230.674229,-0.026969,7151.618266,4.147165,7336.933214,2.035181
node_P5447256-1_T_17916,7280.768823,-0.033099,7239.604970,4.154010,7334.276731,2.040406
node_P5620916-1_17916,7233.020137,-0.026884,0.000000,0.000000,0.000000,0.000000
node_J016A-1_F_17916,7229.195090,-0.027007,7150.195297,4.147125,7335.531890,2.035150
node_1775299E_17916_1,7280.787488,-0.033097,7239.621686,4.154013,7334.292940,2.040408
node_P5076411-1_17916,7219.453349,-0.026897,7138.283889,4.147036,7325.732167,2.034889
node_GS1145-2_17916,7230.129211,-0.027001,7151.131749,4.147131,7336.448364,2.035155
node_J0133-3P_17916,7219.346185,-0.026898,7138.175980,4.147036,7325.612244,2.034889
node_GS0645-3_17916,7230.055886,-0.027005,7151.087489,4.147126,7336.401391,2.035154
node_GS0515-3_17916,7220.130713,-0.026872,7138.959117,4.147061,7326.401019,2.034912
node_GS0733-3_17916,7276.402279,-0.032285,7231.141290,4.153298,7336.352706,2.039926
node_P5320414-B_T_17916,7292.915337,-0.035425,7263.231993,4.155997,7327.856793,2.041723
node_ND61804314_17916,7290.990814,-0.034956,7259.061862,4.155598,7329.885894,2.041472
node_OS0970-1_17916,7289.220575,-0.035243,7262.749239,4.156462,7322.752062,2.042552
node_61778364_17916,7220.090667,-0.026878,7138.919798,4.147055,7326.362459,2.034906
node_1680706E_17916,7280.716031,-0.033089,7239.552727,4.154021,7334.218821,2.040416
node_PS0080_17916_1,7220.481434,-0.026804,7139.561510,4.147144,7326.791226,2.035018
node_RCS3190-4_17916,7233.077646,-0.026883,7154.720584,4.147296,7339.432370,2.035377
node_4471502E_17916,7260.692923,-0.029365,7200.614391,4.150695,7343.908200,2.038176
node_PS0639_17916_1,7292.852869,-0.035293,7262.604295,4.155886,7329.090452,2.041666
node_149943048_17916,7258.308643,-0.028926,7196.000337,4.150302,7344.998854,2.037912
node_GS1145-1_17916,7230.129189,-0.027001,7151.131726,4.147131,7336.448342,2.035155
node_61781646_17916,7230.129237,-0.027001,7151.131775,4.147131,7336.448389,2.035155
node_ND136541264_17916,7263.058671,-0.029802,7205.200001,4.151086,7342.812983,2.038439
node_GS0297-2_17916,7274.473136,-0.031903,7227.316961,4.152960,7337.546647,2.039704
node_ND61804862_17916,7244.756898,-0.026583,7169.127110,4.147806,7351.424900,2.036131
node_61779962_17916,7220.125888,-0.026872,7138.954340,4.147061,7326.396130,2.034912
node_ND61804817_17916,7280.793435,-0.033096,7239.627484,4.154014,7334.298734,2.040409
node_ND61804583_17916,7219.381685,-0.026897,7138.211611,4.147036,7325.648151,2.034889
node_P5506438_17916,7219.047987,-0.026901,7137.877536,4.147033,7325.319984,2.034886
node_61780002_17916,7220.127174,-0.026873,7138.955612,4.147061,7326.397436,2.034912
node_P5517653_17916,7280.632806,-0.033094,7239.471626,4.154016,7334.135179,2.040412
node_ND105879234_17916,7228.718947,-0.026931,7149.305255,4.147167,7334.986348,2.035155
node_ND61804577_17916,7219.405232,-0.026790,7138.287299,4.147138,7325.721288,2.034997
node_P5446952-1_T_17916,7246.717531,-0.026783,7173.498302,4.148366,7350.390391,2.036618
node_P5076413-1_T_17916,7219.367382,-0.026897,7138.197684,4.147036,7325.647824,2.034889
node_61760346_17916,7244.782426,-0.026578,7169.087135,4.147806,7351.445106,2.036126
node_PME3093-3_17916,7280.675762,-0.033088,7239.513479,4.154023,7334.177288,2.040418
node_P5620917-2_17916,7233.009106,-0.026884,0.000000,0.000000,0.000000,0.000000
node_4465699E_17916_1,7231.600340,-0.026643,7153.420052,4.147524,7338.072672,2.035630
node_ND61804665_17916,7280.716642,-0.033089,7239.553302,4.154021,7334.219439,2.040416
node_B5077101-2_17916,7244.745383,-0.026583,0.000000,0.000000,0.000000,0.000000
node_136541331_17916,7263.054126,-0.029801,7205.195487,4.151086,7342.808492,2.038439
node_ND105879489_17916,7231.600339,-0.026643,7153.420026,4.147524,7338.072688,2.035630
node_61779970_17916,7220.125912,-0.026872,7138.954365,4.147061,7326.396155,2.034912
node_GS0645-5_T_17916,7219.980180,-0.026892,7138.811755,4.147041,7326.251273,2.034893
node_4801319E_17916,7280.771169,-0.033095,7239.605959,4.154015,7334.276053,2.040410
node_294778E_17916,7226.136150,-0.026890,7146.250252,4.147161,7332.416650,2.035113
node_4592620E_17916_1,7231.302717,-0.026639,7153.074169,4.147524,7337.774712,2.035626
node_GS0494-2_17916,7244.774017,-0.026579,7169.078882,4.147805,7351.436683,2.036125
node_OS0970-2_17916,7289.210180,-0.035244,7262.738906,4.156461,7322.738452,2.042550
node_2134549E_17916,7284.526091,-0.033771,7246.722946,4.154594,7332.714569,2.040799
node_P5320414-A_17916,7292.915405,-0.035425,7263.232062,4.155997,7327.856862,2.041723
node_BS6417-L_T_17916,7220.801156,-0.026810,7139.946267,4.147144,7327.109835,2.035023
node_PME3089-3_17916_1,7228.523401,-0.027011,7149.521931,4.147120,7334.872890,2.035147
node_4797915E_17916,7233.040455,-0.027037,7154.382184,4.147134,7339.303741,2.035184
node_P5076693-1_17916,7284.458580,-0.033771,7246.655732,4.154594,7332.647931,2.040798
node_P5595831_17916,7232.934842,-0.026860,7154.589535,4.147317,0.000000,0.000000
node_P5078993-1_17916,7219.947020,-0.026879,7138.775755,4.147054,7326.221527,2.034906
node_4475989E_17916_1,7280.685490,-0.033086,7239.522965,4.154024,7334.186829,2.040420
node_GS0645-1_17916,7230.055876,-0.027005,7151.087478,4.147126,7336.401381,2.035154
node_RCS3190-2_17916,7233.090467,-0.026881,7154.733254,4.147298,7339.445324,2.035379
node_P5320416-A_T_17916,7292.905313,-0.035426,7263.222213,4.155996,7327.847137,2.041721
node_P5078992-B_T_17916,7219.970600,-0.026879,7138.799400,4.147054,7326.244661,2.034906
node_2115385E_17916,7243.852253,-0.026821,7167.536610,4.147533,7350.390983,2.035791
node_P5620917_F_17916,7233.009096,-0.026884,0.000000,0.000000,0.000000,0.000000
node_P5079023-1_17916,7228.716354,-0.026932,7149.302643,4.147166,7334.984231,2.035155
node_ND83808312_17916,7275.277655,-0.032080,7228.976849,4.153115,7336.864683,2.039802
node_4471503E_17916_1,7263.058671,-0.029801,7205.200030,4.151086,7342.812966,2.038439
node_164861877_17916,7219.980198,-0.026892,7138.811773,4.147041,7326.251291,2.034893
node_GS1145-2_17916_1,7230.129162,-0.027001,7151.131698,4.147131,7336.448315,2.035155
node_B5077101-1_17916,7244.745353,-0.026583,0.000000,0.000000,0.000000,0.000000
node_P5398618-B_17916,7230.024076,-0.027007,7151.056298,4.147124,7336.370681,2.035152
node_GS0515-1_17916_1,7220.125821,-0.026872,7138.954272,4.147061,7326.396065,2.034912
node_61804112_17916_1,7280.769179,-0.033099,7239.605289,4.154010,7334.277042,2.040406
node_61781267_17916,7229.195122,-0.027007,7150.195330,4.147125,7335.531922,2.035150
node_P5512210-1_T_17916,7258.308020,-0.028926,7195.999713,4.150302,7344.998240,2.037912
node_GS0515-6_17916,7220.122662,-0.026873,7138.951151,4.147060,7326.392858,2.034911
node_2115381E_17916,7244.755835,-0.026583,7169.128491,4.147806,7351.423818,2.036131
...